<?xml version="1.0" encoding="UTF-8"?>
<routes xmlns:xsi="http://www.w3.org/2001/XMLSchema-instance" xsi:noNamespaceSchemaLocation="http://sumo.dlr.de/xsd/routes_file.xsd">

    <vType id="car" vClass="passenger" speedFactor="1.0" length="5.0" />
    
    <route id="route_0" edges="E0 E1 E2"/>
    <route id="route_1" edges="E3 E4 E5"/>
    <route id="route_2" edges="E1 E3 E4"/>
    <route id="route_3" edges="E0 E2 E5"/>
    <route id="route_4" edges="E5 E6"/>

    <vehicle id="car_0" type="car" route="route_0" depart="0" />
    <vehicle id="car_1" type="car" route="route_1" depart="5" />
    <vehicle id="car_2" type="car" route="route_2" depart="10" />
    <vehicle id="car_3" type="car" route="route_3" depart="15" />
    <vehicle id="car_4" type="car" route="route_4" depart="20" />
    
</routes>