<?xml version="1.0" encoding="UTF-8"?>

<!-- generated on 2024-09-26 10:57:35 by Eclipse SUMO netedit Version 1.20.0
<configuration xmlns:xsi="http://www.w3.org/2001/XMLSchema-instance" xsi:noNamespaceSchemaLocation="http://sumo.dlr.de/xsd/neteditConfiguration.xsd">

    <input>
        <sumocfg-file value="C:\Users\alaka\Downloads\junction.sumocfg"/>
        <route-files value="C:\Users\alaka\Downloads\junction.rou.xml"/>
        <sumo-net-file value="C:\Users\alaka\Downloads\lanejun.net.xml"/>
    </input>

    <output>
        <output-file value="C:\Users\alaka\Downloads\lanejun.net.xml"/>
    </output>

    <processing>
        <offset.disable-normalization value="true"/>
    </processing>

    <junctions>
        <no-turnarounds value="true"/>
    </junctions>

    <netedit>
        <new-network value="false"/>
    </netedit>

</configuration>
-->

<net version="1.20" junctionCornerDetail="5" limitTurnSpeed="5.50" xmlns:xsi="http://www.w3.org/2001/XMLSchema-instance" xsi:noNamespaceSchemaLocation="http://sumo.dlr.de/xsd/net_file.xsd">

    <location netOffset="0.00,0.00" convBoundary="-43.73,4.76,151.75,91.60" origBoundary="10000000000.00,10000000000.00,-10000000000.00,-10000000000.00" projParameter="!"/>

    <edge id=":J1_0" function="internal">
        <lane id=":J1_0_0" index="0" speed="6.59" length="9.19" shape="12.09,41.53 14.58,41.18 16.37,40.11 17.46,38.34 17.84,35.86"/>
        <lane id=":J1_0_1" index="1" speed="7.40" length="11.87" shape="12.09,41.53 15.98,41.18 18.77,40.13 20.46,38.37 21.04,35.90"/>
        <lane id=":J1_0_2" index="2" speed="8.16" length="14.69" shape="12.09,41.53 17.38,41.19 21.17,40.14 23.46,38.39 24.24,35.94"/>
    </edge>
    <edge id=":J1_3" function="internal">
        <lane id=":J1_3_0" index="0" speed="13.89" length="20.81" shape="12.09,41.53 32.93,41.60"/>
        <lane id=":J1_3_1" index="1" speed="13.89" length="20.81" shape="12.08,44.73 32.90,44.79"/>
        <lane id=":J1_3_2" index="2" speed="13.89" length="20.81" shape="12.08,47.93 32.87,47.99"/>
        <lane id=":J1_3_3" index="3" speed="13.89" length="20.81" shape="12.07,51.13 32.84,51.19"/>
    </edge>
    <edge id=":J1_7" function="internal">
        <lane id=":J1_7_0" index="0" speed="13.89" length="20.85" shape="17.57,56.71 17.84,35.86"/>
        <lane id=":J1_7_1" index="1" speed="13.89" length="20.85" shape="20.77,56.75 21.04,35.90"/>
        <lane id=":J1_7_2" index="2" speed="13.89" length="20.85" shape="23.97,56.79 24.24,35.94"/>
        <lane id=":J1_7_3" index="3" speed="13.89" length="20.85" shape="27.17,56.84 27.44,35.98"/>
    </edge>
    <edge id=":J1_11" function="internal">
        <lane id=":J1_11_0" index="0" speed="7.36" length="3.91" shape="27.17,56.84 27.57,52.95"/>
        <lane id=":J1_11_1" index="1" speed="6.54" length="4.17" shape="27.17,56.84 27.55,54.35 28.41,52.94"/>
    </edge>
    <edge id=":J1_13" function="internal">
        <lane id=":J1_13_0" index="0" speed="7.36" length="7.90" shape="27.57,52.95 28.65,50.18 30.42,48.53 32.87,47.99"/>
    </edge>
    <edge id=":J1_14" function="internal">
        <lane id=":J1_14_0" index="0" speed="6.54" length="4.95" shape="28.41,52.94 28.62,52.58 30.39,51.53 32.84,51.19"/>
    </edge>
    <edge id=":J2_0" function="internal">
        <lane id=":J2_0_0" index="0" speed="6.41" length="9.04" shape="107.18,36.38 107.45,38.86 108.45,40.62 110.19,41.66 112.66,41.99"/>
        <lane id=":J2_0_1" index="1" speed="7.23" length="11.81" shape="107.18,36.38 107.41,40.26 108.40,43.02 110.16,44.66 112.69,45.19"/>
        <lane id=":J2_0_2" index="2" speed="8.01" length="14.73" shape="107.18,36.38 107.37,41.66 108.35,45.42 110.14,47.66 112.73,48.39"/>
    </edge>
    <edge id=":J2_3" function="internal">
        <lane id=":J2_3_0" index="0" speed="13.89" length="21.29" shape="107.18,36.38 106.50,57.57"/>
        <lane id=":J2_3_1" index="1" speed="13.89" length="21.29" shape="103.99,36.26 103.30,57.51"/>
        <lane id=":J2_3_2" index="2" speed="13.89" length="21.29" shape="100.79,36.15 100.10,57.46"/>
        <lane id=":J2_3_3" index="3" speed="13.89" length="21.29" shape="97.59,36.03 96.90,57.41"/>
    </edge>
    <edge id=":J2_7" function="internal">
        <lane id=":J2_7_0" index="0" speed="13.89" length="21.29" shape="91.47,42.15 112.66,41.99"/>
        <lane id=":J2_7_1" index="1" speed="13.89" length="21.29" shape="91.44,45.35 112.69,45.19"/>
        <lane id=":J2_7_2" index="2" speed="13.89" length="21.29" shape="91.41,48.55 112.73,48.39"/>
        <lane id=":J2_7_3" index="3" speed="13.89" length="21.29" shape="91.38,51.75 112.76,51.59"/>
    </edge>
    <edge id=":J2_11" function="internal">
        <lane id=":J2_11_0" index="0" speed="7.31" length="4.05" shape="91.38,51.75 95.23,52.13 95.40,52.20"/>
        <lane id=":J2_11_1" index="1" speed="6.49" length="4.22" shape="91.38,51.75 93.83,52.12 95.31,53.03"/>
    </edge>
    <edge id=":J2_13" function="internal">
        <lane id=":J2_13_0" index="0" speed="7.31" length="7.69" shape="95.40,52.20 97.96,53.22 99.59,54.99 100.10,57.46"/>
    </edge>
    <edge id=":J2_14" function="internal">
        <lane id=":J2_14_0" index="0" speed="6.49" length="4.82" shape="95.31,53.03 95.56,53.19 96.59,54.95 96.90,57.41"/>
    </edge>
    <edge id=":J4_0" function="internal">
        <lane id=":J4_0_0" index="0" speed="8.96" length="17.95" shape="105.94,91.79 105.16,96.64 103.02,100.09 99.52,102.15 94.65,102.80"/>
        <lane id=":J4_0_1" index="1" speed="7.66" length="12.82" shape="102.74,91.74 102.18,95.20 100.66,97.67 98.15,99.13 94.68,99.60"/>
        <lane id=":J4_0_2" index="2" speed="6.08" length="7.69" shape="99.54,91.68 99.20,93.76 98.29,95.24 96.79,96.12 94.70,96.40"/>
        <lane id=":J4_0_3" index="3" speed="3.90" length="2.56" shape="96.34,91.63 96.23,92.32 95.92,92.82 95.42,93.11 94.72,93.20"/>
    </edge>
    <edge id=":J5_0" function="internal">
        <lane id=":J5_0_0" index="0" speed="8.96" length="18.14" shape="28.24,102.30 23.32,101.56 19.83,99.42 17.76,95.89 17.12,90.96"/>
        <lane id=":J5_0_1" index="1" speed="7.65" length="12.95" shape="28.26,99.10 24.75,98.57 22.25,97.05 20.78,94.52 20.32,91.00"/>
        <lane id=":J5_0_2" index="2" speed="6.08" length="7.77" shape="28.28,95.90 26.18,95.59 24.68,94.67 23.80,93.15 23.52,91.04"/>
        <lane id=":J5_0_3" index="3" speed="3.90" length="2.59" shape="28.31,92.70 27.61,92.60 27.11,92.29 26.81,91.79 26.72,91.08"/>
    </edge>

    <edge id="E0" from="J0" to="J1" priority="-1">
        <lane id="E0_0" index="0" speed="13.89" length="55.80" shape="-43.71,41.43 12.09,41.53"/>
        <lane id="E0_1" index="1" speed="13.89" length="55.80" shape="-43.72,44.63 12.08,44.73"/>
        <lane id="E0_2" index="2" speed="13.89" length="55.80" shape="-43.73,47.83 12.08,47.93"/>
        <lane id="E0_3" index="3" speed="13.89" length="55.80" shape="-43.73,51.03 12.07,51.13"/>
    </edge>
    <edge id="E1" from="J1" to="J2" priority="-1">
        <lane id="E1_0" index="0" speed="13.89" length="58.54" shape="32.93,41.60 91.47,42.15"/>
        <lane id="E1_1" index="1" speed="13.89" length="58.54" shape="32.90,44.79 91.44,45.35"/>
        <lane id="E1_2" index="2" speed="13.89" length="58.54" shape="32.87,47.99 91.41,48.55"/>
        <lane id="E1_3" index="3" speed="13.89" length="58.54" shape="32.84,51.19 91.38,51.75"/>
    </edge>
    <edge id="E2" from="J2" to="J3" priority="-1">
        <lane id="E2_0" index="0" speed="13.89" length="38.98" shape="112.66,41.99 151.63,41.56"/>
        <lane id="E2_1" index="1" speed="13.89" length="38.98" shape="112.69,45.19 151.67,44.76"/>
        <lane id="E2_2" index="2" speed="13.89" length="38.98" shape="112.73,48.39 151.70,47.96"/>
        <lane id="E2_3" index="3" speed="13.89" length="38.98" shape="112.76,51.59 151.74,51.16"/>
    </edge>
    <edge id="E3" from="J2" to="J4" priority="-1">
        <lane id="E3_0" index="0" speed="13.89" length="34.23" shape="106.50,57.57 105.94,91.79"/>
        <lane id="E3_1" index="1" speed="13.89" length="34.23" shape="103.30,57.51 102.74,91.74"/>
        <lane id="E3_2" index="2" speed="13.89" length="34.23" shape="100.10,57.46 99.54,91.68"/>
        <lane id="E3_3" index="3" speed="13.89" length="34.23" shape="96.90,57.41 96.34,91.63"/>
    </edge>
    <edge id="E4" from="J4" to="J5" priority="-1">
        <lane id="E4_0" index="0" speed="13.89" length="66.42" shape="94.65,102.80 28.24,102.30"/>
        <lane id="E4_1" index="1" speed="13.89" length="66.42" shape="94.68,99.60 28.26,99.10"/>
        <lane id="E4_2" index="2" speed="13.89" length="66.42" shape="94.70,96.40 28.28,95.90"/>
        <lane id="E4_3" index="3" speed="13.89" length="66.42" shape="94.72,93.20 28.31,92.70"/>
    </edge>
    <edge id="E5" from="J5" to="J1" priority="-1">
        <lane id="E5_0" index="0" speed="13.89" length="34.25" shape="17.12,90.96 17.57,56.71"/>
        <lane id="E5_1" index="1" speed="13.89" length="34.25" shape="20.32,91.00 20.77,56.75"/>
        <lane id="E5_2" index="2" speed="13.89" length="34.25" shape="23.52,91.04 23.97,56.79"/>
        <lane id="E5_3" index="3" speed="13.89" length="34.25" shape="26.72,91.08 27.17,56.84"/>
    </edge>
    <edge id="E6" from="J1" to="J6" priority="-1">
        <lane id="E6_0" index="0" speed="13.89" length="16.57" shape="17.84,35.86 18.06,19.29"/>
        <lane id="E6_1" index="1" speed="13.89" length="16.57" shape="21.04,35.90 21.26,19.33"/>
        <lane id="E6_2" index="2" speed="13.89" length="16.57" shape="24.24,35.94 24.46,19.38"/>
        <lane id="E6_3" index="3" speed="13.89" length="16.57" shape="27.44,35.98 27.66,19.42"/>
    </edge>
    <edge id="E8" from="J7" to="J2" priority="-1">
        <lane id="E8_0" index="0" speed="13.89" length="16.92" shape="107.79,19.47 107.18,36.38"/>
        <lane id="E8_1" index="1" speed="13.89" length="16.92" shape="104.60,19.35 103.99,36.26"/>
        <lane id="E8_2" index="2" speed="13.89" length="16.92" shape="101.40,19.24 100.79,36.15"/>
        <lane id="E8_3" index="3" speed="13.89" length="16.92" shape="98.20,19.12 97.59,36.03"/>
    </edge>
    <edge id="E9" from="J7" to="J6" priority="-1">
        <lane id="E9_0" index="0" speed="13.89" length="64.38" shape="95.15,15.97 30.77,16.33"/>
        <lane id="E9_1" index="1" speed="13.89" length="64.38" shape="95.13,12.77 30.75,13.13"/>
        <lane id="E9_2" index="2" speed="13.89" length="64.38" shape="95.11,9.57 30.74,9.93"/>
        <lane id="E9_3" index="3" speed="13.89" length="64.38" shape="95.09,6.37 30.72,6.73"/>
    </edge>

    <junction id="J0" type="dead_end" x="-43.73" y="52.63" incLanes="" intLanes="" shape="-43.73,52.63 -43.71,39.83"/>
    <junction id="J1" type="priority" x="28.82" y="52.76" incLanes="E0_0 E0_1 E0_2 E0_3 E5_0 E5_1 E5_2 E5_3" intLanes=":J1_0_0 :J1_0_1 :J1_0_2 :J1_3_0 :J1_3_1 :J1_3_2 :J1_3_3 :J1_7_0 :J1_7_1 :J1_7_2 :J1_7_3 :J1_13_0 :J1_14_0" shape="32.82,52.79 32.94,40.00 30.75,39.54 29.99,38.98 29.45,38.20 29.14,37.21 29.04,36.00 16.24,35.84 15.76,38.11 15.18,38.91 14.37,39.48 13.34,39.82 12.09,39.93 12.07,52.73 14.26,53.17 15.02,53.72 15.56,54.49 15.88,55.48 15.97,56.69 28.77,56.86 29.24,54.58 29.81,53.79 30.59,53.23 31.60,52.90">
        <request index="0"  response="0000000000000" foes="0011110000000" cont="0"/>
        <request index="1"  response="0000000000000" foes="0011110000000" cont="0"/>
        <request index="2"  response="0000000000000" foes="0011110000000" cont="0"/>
        <request index="3"  response="0000000000000" foes="1111110000000" cont="0"/>
        <request index="4"  response="0000000000000" foes="1111110000000" cont="0"/>
        <request index="5"  response="0000000000000" foes="1111110000000" cont="0"/>
        <request index="6"  response="0000000000000" foes="1111110000000" cont="0"/>
        <request index="7"  response="0000001111111" foes="0000001111111" cont="0"/>
        <request index="8"  response="0000001111111" foes="0000001111111" cont="0"/>
        <request index="9"  response="0000001111111" foes="0000001111111" cont="0"/>
        <request index="10" response="0000001111111" foes="0000001111111" cont="0"/>
        <request index="11" response="0000001111000" foes="0000001111000" cont="1"/>
        <request index="12" response="0000001111000" foes="0000001111000" cont="1"/>
    </junction>
    <junction id="J2" type="priority" x="95.36" y="53.38" incLanes="E8_0 E8_1 E8_2 E8_3 E1_0 E1_1 E1_2 E1_3" intLanes=":J2_0_0 :J2_0_1 :J2_0_2 :J2_3_0 :J2_3_1 :J2_3_2 :J2_3_3 :J2_7_0 :J2_7_1 :J2_7_2 :J2_7_3 :J2_13_0 :J2_14_0" shape="112.78,53.19 112.64,40.39 110.43,39.97 109.67,39.42 109.15,38.65 108.85,37.66 108.78,36.44 95.99,35.98 95.42,38.53 94.78,39.42 93.91,40.06 92.82,40.43 91.48,40.55 91.36,53.35 93.58,53.81 94.35,54.37 94.89,55.16 95.21,56.16 95.30,57.38 108.10,57.59 108.65,55.17 109.30,54.32 110.21,53.70 111.37,53.33">
        <request index="0"  response="0000000000000" foes="0011110000000" cont="0"/>
        <request index="1"  response="0000000000000" foes="0011110000000" cont="0"/>
        <request index="2"  response="0000000000000" foes="0011110000000" cont="0"/>
        <request index="3"  response="0000000000000" foes="1111110000000" cont="0"/>
        <request index="4"  response="0000000000000" foes="1111110000000" cont="0"/>
        <request index="5"  response="0000000000000" foes="1111110000000" cont="0"/>
        <request index="6"  response="0000000000000" foes="1111110000000" cont="0"/>
        <request index="7"  response="0000001111111" foes="0000001111111" cont="0"/>
        <request index="8"  response="0000001111111" foes="0000001111111" cont="0"/>
        <request index="9"  response="0000001111111" foes="0000001111111" cont="0"/>
        <request index="10" response="0000001111111" foes="0000001111111" cont="0"/>
        <request index="11" response="0000001111000" foes="0000001111000" cont="1"/>
        <request index="12" response="0000001111000" foes="0000001111000" cont="1"/>
    </junction>
    <junction id="J3" type="dead_end" x="151.75" y="52.76" incLanes="E2_0 E2_1 E2_2 E2_3" intLanes="" shape="151.61,39.96 151.75,52.76"/>
    <junction id="J4" type="priority" x="94.74" y="91.60" incLanes="E3_0 E3_1 E3_2 E3_3" intLanes=":J4_0_0 :J4_0_1 :J4_0_2 :J4_0_3" shape="107.54,91.81 94.74,91.60 94.64,104.40 98.52,104.08 101.71,103.05 104.21,101.30 106.01,98.85 107.12,95.69">
        <request index="0" response="0000" foes="0000" cont="0"/>
        <request index="1" response="0000" foes="0000" cont="0"/>
        <request index="2" response="0000" foes="0000" cont="0"/>
        <request index="3" response="0000" foes="0000" cont="0"/>
    </junction>
    <junction id="J5" type="priority" x="28.32" y="91.10" incLanes="E4_0 E4_1 E4_2 E4_3" intLanes=":J5_0_0 :J5_0_1 :J5_0_2 :J5_0_3" shape="28.22,103.90 28.32,91.10 15.52,90.94 15.83,94.87 16.86,98.10 18.61,100.61 21.09,102.42 24.30,103.52">
        <request index="0" response="0000" foes="0000" cont="0"/>
        <request index="1" response="0000" foes="0000" cont="0"/>
        <request index="2" response="0000" foes="0000" cont="0"/>
        <request index="3" response="0000" foes="0000" cont="0"/>
    </junction>
    <junction id="J6" type="dead_end" x="29.45" y="5.14" incLanes="E9_0 E9_1 E9_2 E9_3 E6_0 E6_1 E6_2 E6_3" intLanes="" shape="30.78,17.93 30.71,5.13 26.41,5.55 22.88,6.74 20.12,8.70 18.13,11.45 16.91,14.97 16.46,19.27 29.26,19.44 29.44,18.60 29.65,18.31 29.94,18.10 30.32,17.97"/>
    <junction id="J7" type="dead_end" x="97.12" y="4.76" incLanes="" intLanes="" shape="95.08,4.77 95.16,17.57 95.98,17.73 96.27,17.94 96.47,18.23 96.58,18.61 96.60,19.06 109.39,19.53 109.14,14.99 108.04,11.29 106.08,8.42 103.27,6.38 99.61,5.16"/>

    <junction id=":J1_13_0" type="internal" x="27.57" y="52.95" incLanes=":J1_11_0 E0_0 E0_1 E0_2 E0_3" intLanes=":J1_3_0 :J1_3_1 :J1_3_2 :J1_3_3"/>
    <junction id=":J1_14_0" type="internal" x="28.41" y="52.94" incLanes=":J1_11_1 E0_0 E0_1 E0_2 E0_3" intLanes=":J1_3_0 :J1_3_1 :J1_3_2 :J1_3_3"/>
    <junction id=":J2_13_0" type="internal" x="95.40" y="52.20" incLanes=":J2_11_0 E8_0 E8_1 E8_2 E8_3" intLanes=":J2_3_0 :J2_3_1 :J2_3_2 :J2_3_3"/>
    <junction id=":J2_14_0" type="internal" x="95.31" y="53.03" incLanes=":J2_11_1 E8_0 E8_1 E8_2 E8_3" intLanes=":J2_3_0 :J2_3_1 :J2_3_2 :J2_3_3"/>

    <connection from="E0" to="E6" fromLane="0" toLane="0" via=":J1_0_0" dir="r" state="M"/>
    <connection from="E0" to="E6" fromLane="0" toLane="1" via=":J1_0_1" dir="r" state="M"/>
    <connection from="E0" to="E6" fromLane="0" toLane="2" via=":J1_0_2" dir="r" state="M"/>
    <connection from="E0" to="E1" fromLane="0" toLane="0" via=":J1_3_0" dir="s" state="M"/>
    <connection from="E0" to="E1" fromLane="1" toLane="1" via=":J1_3_1" dir="s" state="M"/>
    <connection from="E0" to="E1" fromLane="2" toLane="2" via=":J1_3_2" dir="s" state="M"/>
    <connection from="E0" to="E1" fromLane="3" toLane="3" via=":J1_3_3" dir="s" state="M"/>
    <connection from="E1" to="E2" fromLane="0" toLane="0" via=":J2_7_0" dir="s" state="m"/>
    <connection from="E1" to="E2" fromLane="1" toLane="1" via=":J2_7_1" dir="s" state="m"/>
    <connection from="E1" to="E2" fromLane="2" toLane="2" via=":J2_7_2" dir="s" state="m"/>
    <connection from="E1" to="E2" fromLane="3" toLane="3" via=":J2_7_3" dir="s" state="m"/>
    <connection from="E1" to="E3" fromLane="3" toLane="2" via=":J2_11_0" dir="l" state="m"/>
    <connection from="E1" to="E3" fromLane="3" toLane="3" via=":J2_11_1" dir="l" state="m"/>
    <connection from="E3" to="E4" fromLane="0" toLane="0" via=":J4_0_0" dir="l" state="M"/>
    <connection from="E3" to="E4" fromLane="1" toLane="1" via=":J4_0_1" dir="l" state="M"/>
    <connection from="E3" to="E4" fromLane="2" toLane="2" via=":J4_0_2" dir="l" state="M"/>
    <connection from="E3" to="E4" fromLane="3" toLane="3" via=":J4_0_3" dir="l" state="M"/>
    <connection from="E4" to="E5" fromLane="0" toLane="0" via=":J5_0_0" dir="l" state="M"/>
    <connection from="E4" to="E5" fromLane="1" toLane="1" via=":J5_0_1" dir="l" state="M"/>
    <connection from="E4" to="E5" fromLane="2" toLane="2" via=":J5_0_2" dir="l" state="M"/>
    <connection from="E4" to="E5" fromLane="3" toLane="3" via=":J5_0_3" dir="l" state="M"/>
    <connection from="E5" to="E6" fromLane="0" toLane="0" via=":J1_7_0" dir="s" state="m"/>
    <connection from="E5" to="E6" fromLane="1" toLane="1" via=":J1_7_1" dir="s" state="m"/>
    <connection from="E5" to="E6" fromLane="2" toLane="2" via=":J1_7_2" dir="s" state="m"/>
    <connection from="E5" to="E6" fromLane="3" toLane="3" via=":J1_7_3" dir="s" state="m"/>
    <connection from="E5" to="E1" fromLane="3" toLane="2" via=":J1_11_0" dir="l" state="m"/>
    <connection from="E5" to="E1" fromLane="3" toLane="3" via=":J1_11_1" dir="l" state="m"/>
    <connection from="E8" to="E2" fromLane="0" toLane="0" via=":J2_0_0" dir="r" state="M"/>
    <connection from="E8" to="E2" fromLane="0" toLane="1" via=":J2_0_1" dir="r" state="M"/>
    <connection from="E8" to="E2" fromLane="0" toLane="2" via=":J2_0_2" dir="r" state="M"/>
    <connection from="E8" to="E3" fromLane="0" toLane="0" via=":J2_3_0" dir="s" state="M"/>
    <connection from="E8" to="E3" fromLane="1" toLane="1" via=":J2_3_1" dir="s" state="M"/>
    <connection from="E8" to="E3" fromLane="2" toLane="2" via=":J2_3_2" dir="s" state="M"/>
    <connection from="E8" to="E3" fromLane="3" toLane="3" via=":J2_3_3" dir="s" state="M"/>

    <connection from=":J1_0" to="E6" fromLane="0" toLane="0" dir="r" state="M"/>
    <connection from=":J1_0" to="E6" fromLane="1" toLane="1" dir="r" state="M"/>
    <connection from=":J1_0" to="E6" fromLane="2" toLane="2" dir="r" state="M"/>
    <connection from=":J1_3" to="E1" fromLane="0" toLane="0" dir="s" state="M"/>
    <connection from=":J1_3" to="E1" fromLane="1" toLane="1" dir="s" state="M"/>
    <connection from=":J1_3" to="E1" fromLane="2" toLane="2" dir="s" state="M"/>
    <connection from=":J1_3" to="E1" fromLane="3" toLane="3" dir="s" state="M"/>
    <connection from=":J1_7" to="E6" fromLane="0" toLane="0" dir="s" state="M"/>
    <connection from=":J1_7" to="E6" fromLane="1" toLane="1" dir="s" state="M"/>
    <connection from=":J1_7" to="E6" fromLane="2" toLane="2" dir="s" state="M"/>
    <connection from=":J1_7" to="E6" fromLane="3" toLane="3" dir="s" state="M"/>
    <connection from=":J1_11" to="E1" fromLane="0" toLane="2" via=":J1_13_0" dir="l" state="m"/>
    <connection from=":J1_13" to="E1" fromLane="0" toLane="2" dir="l" state="M"/>
    <connection from=":J1_11" to="E1" fromLane="1" toLane="3" via=":J1_14_0" dir="l" state="m"/>
    <connection from=":J1_14" to="E1" fromLane="0" toLane="3" dir="l" state="M"/>
    <connection from=":J2_0" to="E2" fromLane="0" toLane="0" dir="r" state="M"/>
    <connection from=":J2_0" to="E2" fromLane="1" toLane="1" dir="r" state="M"/>
    <connection from=":J2_0" to="E2" fromLane="2" toLane="2" dir="r" state="M"/>
    <connection from=":J2_3" to="E3" fromLane="0" toLane="0" dir="s" state="M"/>
    <connection from=":J2_3" to="E3" fromLane="1" toLane="1" dir="s" state="M"/>
    <connection from=":J2_3" to="E3" fromLane="2" toLane="2" dir="s" state="M"/>
    <connection from=":J2_3" to="E3" fromLane="3" toLane="3" dir="s" state="M"/>
    <connection from=":J2_7" to="E2" fromLane="0" toLane="0" dir="s" state="M"/>
    <connection from=":J2_7" to="E2" fromLane="1" toLane="1" dir="s" state="M"/>
    <connection from=":J2_7" to="E2" fromLane="2" toLane="2" dir="s" state="M"/>
    <connection from=":J2_7" to="E2" fromLane="3" toLane="3" dir="s" state="M"/>
    <connection from=":J2_11" to="E3" fromLane="0" toLane="2" via=":J2_13_0" dir="l" state="m"/>
    <connection from=":J2_13" to="E3" fromLane="0" toLane="2" dir="l" state="M"/>
    <connection from=":J2_11" to="E3" fromLane="1" toLane="3" via=":J2_14_0" dir="l" state="m"/>
    <connection from=":J2_14" to="E3" fromLane="0" toLane="3" dir="l" state="M"/>
    <connection from=":J4_0" to="E4" fromLane="0" toLane="0" dir="l" state="M"/>
    <connection from=":J4_0" to="E4" fromLane="1" toLane="1" dir="l" state="M"/>
    <connection from=":J4_0" to="E4" fromLane="2" toLane="2" dir="l" state="M"/>
    <connection from=":J4_0" to="E4" fromLane="3" toLane="3" dir="l" state="M"/>
    <connection from=":J5_0" to="E5" fromLane="0" toLane="0" dir="l" state="M"/>
    <connection from=":J5_0" to="E5" fromLane="1" toLane="1" dir="l" state="M"/>
    <connection from=":J5_0" to="E5" fromLane="2" toLane="2" dir="l" state="M"/>
    <connection from=":J5_0" to="E5" fromLane="3" toLane="3" dir="l" state="M"/>

</net>
