<?xml version="1.0" encoding="UTF-8"?>
<routes xmlns:xsi="http://www.w3.org/2001/XMLSchema-instance" xsi:noNamespaceSchemaLocation="http://sumo.dlr.de/xsd/routes_file.xsd">

    <vType id="car" vClass="passenger" length="5.0" minGap="0.2" maxSpeed="10.89" accel="2.6" decel="4.5" />

    <!-- Define the route using the edge -->
    <route id="route_0" edges="E0" />

    <!-- Adding Vehicles for Platooning -->
    <vehicle id="vehicle_platoon_1" type="car" route="route_0" depart="0" />
    <vehicle id="vehicle_platoon_2" type="car" route="route_0" depart="1" />
    <vehicle id="vehicle_platoon_3" type="car" route="route_0" depart="2" />
    <vehicle id="vehicle_platoon_4" type="car" route="route_0" depart="3" />
    <vehicle id="vehicle_platoon_5" type="car" route="route_0" depart="4" />

</routes>
