<?xml version="1.0" encoding="UTF-8"?>

<!-- generated on 2024-09-26 11:57:45 by Eclipse SUMO netedit Version 1.20.0
<configuration xmlns:xsi="http://www.w3.org/2001/XMLSchema-instance" xsi:noNamespaceSchemaLocation="http://sumo.dlr.de/xsd/neteditConfiguration.xsd">

    <input>
        <sumo-net-file value="C:\Users\alaka\Downloads\progress.net.xml"/>
    </input>

    <output>
        <output-file value="C:\Users\alaka\Downloads\progress.net.xml"/>
    </output>

    <processing>
        <offset.disable-normalization value="true"/>
    </processing>

    <junctions>
        <no-turnarounds value="true"/>
    </junctions>

    <netedit>
        <new-network value="false"/>
    </netedit>

</configuration>
-->

<net version="1.20" junctionCornerDetail="5" limitTurnSpeed="5.50" xmlns:xsi="http://www.w3.org/2001/XMLSchema-instance" xsi:noNamespaceSchemaLocation="http://sumo.dlr.de/xsd/net_file.xsd">

    <location netOffset="0.00,0.00" convBoundary="-44.61,2.88,145.86,90.85" origBoundary="10000000000.00,10000000000.00,-10000000000.00,-10000000000.00" projParameter="!"/>

    <edge id=":J5_0" function="internal">
        <lane id=":J5_0_0" index="0" speed="6.50" length="9.03" shape="53.61,31.88 53.94,34.34 54.97,36.10 56.71,37.16 59.16,37.52"/>
        <lane id=":J5_0_1" index="1" speed="7.32" length="11.73" shape="53.61,31.88 53.92,35.74 54.95,38.50 56.69,40.16 59.14,40.72"/>
        <lane id=":J5_0_2" index="2" speed="8.09" length="14.58" shape="53.61,31.88 53.91,37.14 54.93,40.90 56.66,43.16 59.12,43.92"/>
    </edge>
    <edge id=":J5_3" function="internal">
        <lane id=":J5_3_0" index="0" speed="13.89" length="20.83" shape="53.61,31.88 53.41,52.69"/>
        <lane id=":J5_3_1" index="1" speed="13.89" length="20.83" shape="50.41,31.85 50.21,52.67"/>
        <lane id=":J5_3_2" index="2" speed="13.89" length="20.83" shape="47.22,31.81 47.01,52.65"/>
        <lane id=":J5_3_3" index="3" speed="13.89" length="20.83" shape="44.02,31.78 43.81,52.63"/>
    </edge>
    <edge id=":J5_7" function="internal">
        <lane id=":J5_7_0" index="0" speed="13.89" length="20.94" shape="38.17,37.44 59.16,37.52"/>
        <lane id=":J5_7_1" index="1" speed="13.89" length="20.94" shape="38.18,40.64 59.14,40.72"/>
        <lane id=":J5_7_2" index="2" speed="13.89" length="20.94" shape="38.20,43.84 59.12,43.92"/>
        <lane id=":J5_7_3" index="3" speed="13.89" length="20.94" shape="38.22,47.04 59.10,47.12"/>
    </edge>
    <edge id=":J5_11" function="internal">
        <lane id=":J5_11_0" index="0" speed="7.30" length="3.98" shape="38.22,47.04 42.08,47.38 42.18,47.42"/>
        <lane id=":J5_11_1" index="1" speed="6.48" length="4.15" shape="38.22,47.04 40.68,47.38 42.11,48.24"/>
    </edge>
    <edge id=":J5_13" function="internal">
        <lane id=":J5_13_0" index="0" speed="7.30" length="7.76" shape="42.18,47.42 44.83,48.42 46.47,50.18 47.01,52.65"/>
    </edge>
    <edge id=":J5_14" function="internal">
        <lane id=":J5_14_0" index="0" speed="6.48" length="4.88" shape="42.11,48.24 42.43,48.43 43.47,50.18 43.81,52.63"/>
    </edge>

    <edge id="E3" from="J4" to="J5" priority="-1">
        <lane id="E3_0" index="0" speed="13.89" length="82.84" shape="-44.68,37.92 38.17,37.44"/>
        <lane id="E3_1" index="1" speed="13.89" length="82.84" shape="-44.66,41.12 38.18,40.64"/>
        <lane id="E3_2" index="2" speed="13.89" length="82.84" shape="-44.64,44.32 38.20,43.84"/>
        <lane id="E3_3" index="3" speed="13.89" length="82.84" shape="-44.62,47.52 38.22,47.04"/>
    </edge>
    <edge id="E4" from="J5" to="J6" priority="-1">
        <lane id="E4_0" index="0" speed="13.89" length="86.77" shape="59.16,37.52 145.93,38.05"/>
        <lane id="E4_1" index="1" speed="13.89" length="86.77" shape="59.14,40.72 145.91,41.25"/>
        <lane id="E4_2" index="2" speed="13.89" length="86.77" shape="59.12,43.92 145.89,44.45"/>
        <lane id="E4_3" index="3" speed="13.89" length="86.77" shape="59.10,47.12 145.87,47.65"/>
    </edge>
    <edge id="E5" from="J5" to="J7" priority="-1">
        <lane id="E5_0" index="0" speed="13.89" length="38.23" shape="53.41,52.69 53.18,90.92"/>
        <lane id="E5_1" index="1" speed="13.89" length="38.23" shape="50.21,52.67 49.98,90.90"/>
        <lane id="E5_2" index="2" speed="13.89" length="38.23" shape="47.01,52.65 46.78,90.88"/>
        <lane id="E5_3" index="3" speed="13.89" length="38.23" shape="43.81,52.63 43.58,90.86"/>
    </edge>
    <edge id="E6" from="J8" to="J5" priority="-1">
        <lane id="E6_0" index="0" speed="13.89" length="28.88" shape="53.93,3.00 53.61,31.88"/>
        <lane id="E6_1" index="1" speed="13.89" length="28.88" shape="50.73,2.97 50.41,31.85"/>
        <lane id="E6_2" index="2" speed="13.89" length="28.88" shape="47.53,2.93 47.22,31.81"/>
        <lane id="E6_3" index="3" speed="13.89" length="28.88" shape="44.33,2.90 44.02,31.78"/>
    </edge>

    <junction id="J4" type="dead_end" x="-44.61" y="49.12" incLanes="" intLanes="" shape="-44.61,49.12 -44.69,36.32"/>
    <junction id="J5" type="priority" x="42.23" y="48.62" incLanes="E6_0 E6_1 E6_2 E6_3 E3_0 E3_1 E3_2 E3_3" intLanes=":J5_0_0 :J5_0_1 :J5_0_2 :J5_3_0 :J5_3_1 :J5_3_2 :J5_3_3 :J5_7_0 :J5_7_1 :J5_7_2 :J5_7_3 :J5_13_0 :J5_14_0" shape="59.09,48.72 59.17,35.92 56.95,35.47 56.18,34.91 55.63,34.12 55.31,33.12 55.21,31.90 42.42,31.76 41.92,34.02 41.33,34.81 40.50,35.38 39.45,35.72 38.16,35.84 38.23,48.64 40.45,49.08 41.22,49.63 41.78,50.40 42.10,51.40 42.21,52.62 55.01,52.70 55.47,50.48 56.04,49.71 56.83,49.15 57.85,48.83">
        <request index="0"  response="0000000000000" foes="0011110000000" cont="0"/>
        <request index="1"  response="0000000000000" foes="0011110000000" cont="0"/>
        <request index="2"  response="0000000000000" foes="0011110000000" cont="0"/>
        <request index="3"  response="0000000000000" foes="1111110000000" cont="0"/>
        <request index="4"  response="0000000000000" foes="1111110000000" cont="0"/>
        <request index="5"  response="0000000000000" foes="1111110000000" cont="0"/>
        <request index="6"  response="0000000000000" foes="1111110000000" cont="0"/>
        <request index="7"  response="0000001111111" foes="0000001111111" cont="0"/>
        <request index="8"  response="0000001111111" foes="0000001111111" cont="0"/>
        <request index="9"  response="0000001111111" foes="0000001111111" cont="0"/>
        <request index="10" response="0000001111111" foes="0000001111111" cont="0"/>
        <request index="11" response="0000001111000" foes="0000001111000" cont="1"/>
        <request index="12" response="0000001111000" foes="0000001111000" cont="1"/>
    </junction>
    <junction id="J6" type="dead_end" x="145.86" y="49.25" incLanes="E4_0 E4_1 E4_2 E4_3" intLanes="" shape="145.94,36.45 145.86,49.25"/>
    <junction id="J7" type="dead_end" x="41.98" y="90.85" incLanes="E5_0 E5_1 E5_2 E5_3" intLanes="" shape="54.78,90.93 41.98,90.85"/>
    <junction id="J8" type="dead_end" x="42.73" y="2.88" incLanes="" intLanes="" shape="42.73,2.88 55.53,3.02"/>

    <junction id=":J5_13_0" type="internal" x="42.18" y="47.42" incLanes=":J5_11_0 E6_0 E6_1 E6_2 E6_3" intLanes=":J5_3_0 :J5_3_1 :J5_3_2 :J5_3_3"/>
    <junction id=":J5_14_0" type="internal" x="42.11" y="48.24" incLanes=":J5_11_1 E6_0 E6_1 E6_2 E6_3" intLanes=":J5_3_0 :J5_3_1 :J5_3_2 :J5_3_3"/>

    <connection from="E3" to="E4" fromLane="0" toLane="0" via=":J5_7_0" dir="s" state="m"/>
    <connection from="E3" to="E4" fromLane="1" toLane="1" via=":J5_7_1" dir="s" state="m"/>
    <connection from="E3" to="E4" fromLane="2" toLane="2" via=":J5_7_2" dir="s" state="m"/>
    <connection from="E3" to="E4" fromLane="3" toLane="3" via=":J5_7_3" dir="s" state="m"/>
    <connection from="E3" to="E5" fromLane="3" toLane="2" via=":J5_11_0" dir="l" state="m"/>
    <connection from="E3" to="E5" fromLane="3" toLane="3" via=":J5_11_1" dir="l" state="m"/>
    <connection from="E6" to="E4" fromLane="0" toLane="0" via=":J5_0_0" dir="r" state="M"/>
    <connection from="E6" to="E4" fromLane="0" toLane="1" via=":J5_0_1" dir="r" state="M"/>
    <connection from="E6" to="E4" fromLane="0" toLane="2" via=":J5_0_2" dir="r" state="M"/>
    <connection from="E6" to="E5" fromLane="0" toLane="0" via=":J5_3_0" dir="s" state="M"/>
    <connection from="E6" to="E5" fromLane="1" toLane="1" via=":J5_3_1" dir="s" state="M"/>
    <connection from="E6" to="E5" fromLane="2" toLane="2" via=":J5_3_2" dir="s" state="M"/>
    <connection from="E6" to="E5" fromLane="3" toLane="3" via=":J5_3_3" dir="s" state="M"/>

    <connection from=":J5_0" to="E4" fromLane="0" toLane="0" dir="r" state="M"/>
    <connection from=":J5_0" to="E4" fromLane="1" toLane="1" dir="r" state="M"/>
    <connection from=":J5_0" to="E4" fromLane="2" toLane="2" dir="r" state="M"/>
    <connection from=":J5_3" to="E5" fromLane="0" toLane="0" dir="s" state="M"/>
    <connection from=":J5_3" to="E5" fromLane="1" toLane="1" dir="s" state="M"/>
    <connection from=":J5_3" to="E5" fromLane="2" toLane="2" dir="s" state="M"/>
    <connection from=":J5_3" to="E5" fromLane="3" toLane="3" dir="s" state="M"/>
    <connection from=":J5_7" to="E4" fromLane="0" toLane="0" dir="s" state="M"/>
    <connection from=":J5_7" to="E4" fromLane="1" toLane="1" dir="s" state="M"/>
    <connection from=":J5_7" to="E4" fromLane="2" toLane="2" dir="s" state="M"/>
    <connection from=":J5_7" to="E4" fromLane="3" toLane="3" dir="s" state="M"/>
    <connection from=":J5_11" to="E5" fromLane="0" toLane="2" via=":J5_13_0" dir="l" state="m"/>
    <connection from=":J5_13" to="E5" fromLane="0" toLane="2" dir="l" state="M"/>
    <connection from=":J5_11" to="E5" fromLane="1" toLane="3" via=":J5_14_0" dir="l" state="m"/>
    <connection from=":J5_14" to="E5" fromLane="0" toLane="3" dir="l" state="M"/>

</net>
