<routes>
    <vType id="car" vClass="passenger" speedFactor="1.0" length="5.0" width="2.0" />
    
    <!-- Define a route -->
    <route id="route0" edges="E3 E4" />
    <route id="route1" edges="E5 E4" /> <!-- Changed route to connect E5 to E4 -->
    <route id="route2" edges="E4 E5" />

    <!-- Add vehicles to the routes -->
    <vehicle id="vehicle_1" type="car" route="route0" depart="0" />
    <vehicle id="vehicle_2" type="car" route="route1" depart="5" /> <!-- Updated route -->
    <vehicle id="vehicle_3" type="car" route="route2" depart="10" />
</routes>

