<configuration>
    <input>
        <net-file value="C:\Users\alaka\Downloads\simple.net.xml"/>
        <route-file value="C:\Users\alaka\Downloads\simpleroute.rou.xml"/>
    </input>
</configuration>