<?xml version="1.0" encoding="UTF-8"?>

<!-- generated on 2024-09-26 15:19:33 by Eclipse SUMO netedit Version 1.20.0
<configuration xmlns:xsi="http://www.w3.org/2001/XMLSchema-instance" xsi:noNamespaceSchemaLocation="http://sumo.dlr.de/xsd/neteditConfiguration.xsd">

    <input>
        <sumocfg-file value="C:\Users\alaka\Downloads\simple.sumocfg"/>
        <sumo-net-file value="C:\Users\alaka\Downloads\simple.net.xml"/>
    </input>

    <output>
        <output-file value="C:\Users\alaka\Downloads\simple.net.xml"/>
    </output>

    <processing>
        <offset.disable-normalization value="true"/>
    </processing>

    <junctions>
        <no-turnarounds value="true"/>
    </junctions>

    <netedit>
        <new-network value="false"/>
    </netedit>

</configuration>
-->

<net version="1.20" junctionCornerDetail="5" limitTurnSpeed="5.50" xmlns:xsi="http://www.w3.org/2001/XMLSchema-instance" xsi:noNamespaceSchemaLocation="http://sumo.dlr.de/xsd/net_file.xsd">

    <location netOffset="0.00,0.00" convBoundary="-36.84,43.48,126.32,44.99" origBoundary="10000000000.00,10000000000.00,-10000000000.00,-10000000000.00" projParameter="!"/>

    <edge id="E0" from="J0" to="J1" priority="-1">
        <lane id="E0_0" index="0" speed="13.89" length="163.16" shape="-36.86,43.39 126.30,41.88"/>
    </edge>

    <junction id="J0" type="dead_end" x="-36.84" y="44.99" incLanes="" intLanes="" shape="-36.84,44.99 -36.87,41.79"/>
    <junction id="J1" type="dead_end" x="126.32" y="43.48" incLanes="E0_0" intLanes="" shape="126.29,40.28 126.32,43.48"/>

</net>
