<net>
    <edge id="1" from="1" to="2" type="type1"/>
    <edge id="2" from="2" to="3" type="type1"/>
    <edge id="3" from="3" to="1" type="type1"/>
    <node id="1" x="0" y="0" />
    <node id="2" x="100" y="0" />
    <node id="3" x="50" y="100" />
</net>
